Version 4
SHEET 1 1416 1156
WIRE -1552 -784 -1552 -816
WIRE -1056 -784 -1056 -816
WIRE -1552 -736 -1552 -784
WIRE -1056 -736 -1056 -784
WIRE 80 -688 64 -688
WIRE 64 -656 64 -688
WIRE 928 -656 928 -688
WIRE -368 -640 -368 -656
WIRE 1136 -640 1136 -672
WIRE 64 -608 64 -656
WIRE 928 -608 928 -656
WIRE 1136 -592 1136 -640
WIRE -368 -576 -368 -640
WIRE -1552 -560 -1552 -656
WIRE -1056 -560 -1056 -656
WIRE -128 -544 -128 -560
WIRE -96 -544 -128 -544
WIRE -16 -544 -96 -544
WIRE 192 -544 144 -544
WIRE 224 -544 192 -544
WIRE 832 -448 816 -448
WIRE -1536 -432 -1536 -464
WIRE -1056 -432 -1056 -464
WIRE 64 -432 64 -480
WIRE 928 -432 928 -528
WIRE 64 -416 64 -432
WIRE 816 -416 816 -448
WIRE 1136 -416 1136 -512
WIRE -368 -400 -368 -496
WIRE -1536 -384 -1536 -432
WIRE -1056 -384 -1056 -432
WIRE 80 -368 64 -368
WIRE 816 -368 816 -416
WIRE 64 -336 64 -368
WIRE -368 -320 -368 -336
WIRE 736 -304 656 -304
WIRE 960 -304 896 -304
WIRE 64 -288 64 -336
WIRE -368 -256 -368 -320
WIRE -128 -224 -128 -240
WIRE -80 -224 -128 -224
WIRE -16 -224 -80 -224
WIRE 192 -224 144 -224
WIRE 224 -224 192 -224
WIRE -1536 -208 -1536 -304
WIRE -1056 -208 -1056 -304
WIRE 816 -192 816 -240
WIRE 816 -176 816 -192
WIRE 64 -112 64 -160
WIRE 64 -96 64 -112
WIRE 656 -96 656 -304
WIRE 736 -96 656 -96
WIRE 960 -96 960 -304
WIRE 960 -96 800 -96
WIRE -368 -80 -368 -176
WIRE -1536 -32 -1536 -64
WIRE -1536 16 -1536 -32
WIRE -1056 32 -1056 -16
WIRE 320 48 288 48
WIRE 400 48 320 48
WIRE 960 80 960 -96
WIRE 992 80 960 80
WIRE 1008 80 992 80
WIRE 960 96 960 80
WIRE 960 96 816 96
WIRE 480 112 480 48
WIRE 656 112 656 -96
WIRE 656 112 480 112
WIRE 720 112 656 112
WIRE 656 144 480 144
WIRE 720 144 656 144
WIRE -352 160 -352 112
WIRE 96 160 80 160
WIRE 960 160 816 160
WIRE 960 176 960 160
WIRE 976 176 960 176
WIRE 1008 176 976 176
WIRE -1536 192 -1536 96
WIRE -352 192 -352 160
WIRE 80 192 80 160
WIRE -1056 208 -1056 112
WIRE 256 208 208 208
WIRE 400 208 256 208
WIRE 480 208 480 144
WIRE 80 240 80 192
WIRE -112 304 -112 288
WIRE -64 304 -112 304
WIRE 0 304 -64 304
WIRE 208 304 160 304
WIRE 240 304 208 304
WIRE 656 336 656 144
WIRE 752 336 656 336
WIRE 960 336 960 176
WIRE 960 336 816 336
WIRE -352 368 -352 272
WIRE 832 384 816 384
WIRE 80 416 80 368
WIRE 816 416 816 384
WIRE 80 432 80 416
WIRE 816 464 816 416
WIRE 96 528 80 528
WIRE 656 528 656 336
WIRE 736 528 656 528
WIRE 960 528 960 336
WIRE 960 528 896 528
WIRE 80 560 80 528
WIRE 80 608 80 560
WIRE -352 624 -352 576
WIRE 816 640 816 592
WIRE -352 656 -352 624
WIRE 816 656 816 640
WIRE 0 672 -80 672
WIRE 224 672 160 672
WIRE 272 672 224 672
WIRE 272 688 272 672
WIRE 80 784 80 736
WIRE 80 800 80 784
WIRE -352 832 -352 736
FLAG 1136 -416 0
FLAG 1136 -640 vdd1
FLAG 928 -432 0
FLAG 928 -656 vss1
FLAG 992 80 voutp1
FLAG 976 176 voutn1
FLAG -1536 192 0
FLAG -1536 -32 vres
FLAG 816 -416 vres
FLAG 816 -192 vresb
FLAG 816 416 vres
FLAG 816 640 vresb
FLAG -368 -80 0
FLAG -352 368 0
FLAG -352 160 vp_in
FLAG -368 -320 vn_in
FLAG 320 48 vn
FLAG 256 208 vp
FLAG 80 192 vch
FLAG 80 416 vch_b
FLAG 80 560 vdch
FLAG 80 784 vdch_b
FLAG 224 672 vp
FLAG 208 304 vp
FLAG -352 832 0
FLAG -352 624 vp_ref
FLAG -368 -400 0
FLAG -368 -640 vn_ref
FLAG 64 -656 vdch
FLAG 64 -432 vdch_b
FLAG 192 -544 vn
FLAG 64 -336 vch
FLAG 64 -112 vch_b
FLAG 192 -224 vn
FLAG -80 -224 vn_in
FLAG -96 -544 vn_ref
FLAG -64 304 vp_in
FLAG -80 672 vp_ref
FLAG -1056 -208 0
FLAG -1056 -432 vch
FLAG -1536 -208 0
FLAG -1536 -432 vch_b
FLAG -1056 -560 0
FLAG -1056 -784 vdch
FLAG -1552 -560 0
FLAG -1552 -784 vdch_b
FLAG -1056 208 0
FLAG -1056 -16 vresb
DATAFLAG 608 112 ""
DATAFLAG 656 16 ""
DATAFLAG 656 208 ""
DATAFLAG 592 144 "$"
SYMBOL voltage 1136 -608 R0
WINDOW 123 0 0 Left 0
WINDOW 39 0 0 Left 0
SYMATTR InstName V1
SYMATTR Value 1.2
SYMBOL voltage 928 -624 R0
WINDOW 123 0 0 Left 0
WINDOW 39 0 0 Left 0
SYMATTR InstName V2
SYMATTR Value 0
SYMBOL voltage -1536 0 R0
WINDOW 123 24 124 Left 2
WINDOW 39 0 0 Left 0
SYMATTR Value2 AC 1 0
SYMATTR InstName V5
SYMATTR Value PULSE(0 1.2 5u 0.1u 0.1u 1u 20u)
SYMBOL cap 800 -112 R90
WINDOW 0 0 32 VBottom 2
WINDOW 3 32 32 VTop 2
SYMATTR InstName C5
SYMATTR Value 2p
SYMBOL cap 816 320 R90
WINDOW 0 0 32 VBottom 2
WINDOW 3 32 32 VTop 2
SYMATTR InstName C6
SYMATTR Value 2p
SYMBOL res 496 192 R90
WINDOW 0 0 56 VBottom 2
WINDOW 3 32 56 VTop 2
SYMATTR InstName R3
SYMATTR Value 2.5Meg
SYMBOL res 496 32 R90
WINDOW 0 0 56 VBottom 2
WINDOW 3 32 56 VTop 2
SYMATTR InstName R4
SYMATTR Value 2.5Meg
SYMBOL TG_Switch 816 -304 R0
SYMATTR InstName X2
SYMBOL TG_Switch 816 528 R0
SYMATTR InstName X3
SYMBOL voltage -368 -272 R0
WINDOW 123 24 124 Left 2
WINDOW 39 0 0 Left 0
SYMATTR Value2 AC 0 0
SYMATTR InstName V9
SYMATTR Value 1
SYMBOL voltage -352 176 R0
WINDOW 123 24 124 Left 2
WINDOW 39 0 0 Left 0
SYMATTR Value2 AC 0 0
SYMATTR InstName V10
SYMATTR Value 0.2
SYMBOL TG_Switch 80 304 R0
SYMATTR InstName X4
SYMBOL TG_Switch 80 672 R0
SYMATTR InstName X5
SYMBOL voltage -352 640 R0
WINDOW 123 24 124 Left 2
WINDOW 39 0 0 Left 0
SYMATTR Value2 AC 0 0
SYMATTR InstName V3
SYMATTR Value 0.9
SYMBOL voltage -368 -592 R0
WINDOW 123 24 124 Left 2
WINDOW 39 0 0 Left 0
SYMATTR Value2 AC 0 0
SYMATTR InstName V4
SYMATTR Value 0.3
SYMBOL TG_Switch 64 -544 R0
SYMATTR InstName X6
SYMBOL TG_Switch 64 -224 R0
SYMATTR InstName X7
SYMBOL voltage -1056 -400 R0
WINDOW 123 24 124 Left 2
WINDOW 39 0 0 Left 0
SYMATTR Value2 AC 1 0
SYMATTR InstName V7
SYMATTR Value PULSE(0 1.2 6u 0.1u 0.1u 5u 20u)
SYMBOL voltage -1536 -400 R0
WINDOW 123 24 124 Left 2
WINDOW 39 0 0 Left 0
SYMATTR Value2 AC 1 0
SYMATTR InstName V8
SYMATTR Value PULSE(1.2 0 6u 0.1u 0.1u 5u 20u)
SYMBOL voltage -1056 -752 R0
WINDOW 123 24 124 Left 2
WINDOW 39 0 0 Left 0
SYMATTR Value2 AC 1 0
SYMATTR InstName V11
SYMATTR Value PULSE(0 1.2 11u 0.1u 0.1u 8u 20u)
SYMBOL voltage -1552 -752 R0
WINDOW 123 24 124 Left 2
WINDOW 39 0 0 Left 0
SYMATTR Value2 AC 1 0
SYMATTR InstName V12
SYMATTR Value PULSE(1.2 0 11u 0.1u 0.1u 8u 20u)
SYMBOL voltage -1056 16 R0
WINDOW 123 24 124 Left 2
WINDOW 39 0 0 Left 0
SYMATTR Value2 AC 1 0
SYMATTR InstName V6
SYMATTR Value PULSE(1.2 0 5u 0.1u 0.1u 1u 20u)
SYMBOL adc_diff_fast_sym 784 128 R0
SYMATTR InstName X1
TEXT 432 -648 Left 2 !.include 65nm_bulk.txt
TEXT 424 -560 Left 2 ;.op
TEXT 424 -520 Left 2 ;.ac dec 10 1 10G
TEXT 424 -488 Left 2 !.tran 0 20u 0 0.01u
