Version 4.1
SHEET 1 1428 680
WIRE 416 -432 256 -432
WIRE 416 -384 416 -432
WIRE 400 -304 384 -304
WIRE 416 -304 416 -384
WIRE 416 -304 400 -304
WIRE 384 -256 224 -256
WIRE 480 -256 464 -256
WIRE 512 -256 480 -256
WIRE 704 -256 576 -256
WIRE 816 -256 704 -256
WIRE 432 -176 432 -256
WIRE 448 -176 432 -176
WIRE 992 -128 992 -160
WIRE 224 -96 224 -256
WIRE 320 -96 224 -96
WIRE 512 -96 512 -256
WIRE 512 -96 384 -96
WIRE 992 -96 992 -128
WIRE 816 -16 816 -256
WIRE 992 16 992 -16
WIRE 880 32 816 32
WIRE 224 64 224 -96
WIRE 224 64 16 64
WIRE 320 64 224 64
WIRE 512 64 512 -96
WIRE 512 64 448 64
WIRE 672 64 512 64
WIRE 768 64 672 64
WIRE -48 96 -80 96
WIRE 16 96 16 64
WIRE 16 96 -48 96
WIRE 816 128 816 80
WIRE 816 160 816 128
WIRE 1072 160 1072 112
WIRE 912 208 816 208
WIRE 1072 208 1072 160
WIRE -80 224 -80 96
WIRE 16 224 16 96
WIRE 672 240 560 240
WIRE 768 240 672 240
WIRE 720 288 672 288
WIRE 816 288 816 256
WIRE 816 288 720 288
WIRE 832 288 816 288
WIRE -80 304 -80 288
WIRE -32 304 -80 304
WIRE 16 304 -32 304
WIRE -80 320 -80 304
WIRE 672 352 672 288
WIRE 928 352 752 352
WIRE 1072 352 1072 288
WIRE 1072 352 928 352
WIRE -32 384 -32 304
WIRE 832 384 832 288
WIRE 1072 384 1072 352
WIRE 864 432 832 432
WIRE 752 464 752 352
WIRE 784 464 752 464
WIRE 928 464 928 352
WIRE 1024 464 928 464
WIRE 1072 464 1072 432
WIRE 672 480 672 416
WIRE 720 480 672 480
WIRE 832 480 720 480
WIRE 864 480 864 432
WIRE 864 480 832 480
WIRE 944 480 864 480
WIRE 1072 480 944 480
FLAG -32 384 0
FLAG 992 16 0
FLAG 992 -128 vdd
FLAG 944 480 0
FLAG 720 480 0
FLAG 912 208 0
FLAG 880 32 0
FLAG 1072 160 vdd
FLAG 704 -256 vdd
FLAG 720 288 Vout
FLAG 672 64 vg
FLAG 672 240 vdd
FLAG 816 128 vs2
FLAG -48 96 vdiode
FLAG 496 496 0
FLAG 256 -352 0
FLAG 432 -176 0
FLAG 416 -384 sample
SYMBOL nmos4 768 160 R0
SYMATTR InstName M1
SYMATTR Value n_65
SYMATTR Value2 l=65n w=1u
SYMBOL nmos4 768 -16 R0
SYMATTR InstName M2
SYMATTR Value n_65
SYMATTR Value2 l=65n w=8u
SYMBOL current 16 224 R0
WINDOW 123 0 0 Left 0
WINDOW 39 0 0 Left 0
WINDOW 3 -276 127 Left 2
SYMATTR Value PULSE(0 50n 0 1n 1n 4u 8u)
SYMATTR InstName I1
SYMBOL cap -96 224 R0
SYMATTR InstName C1
SYMATTR Value 3p
SYMBOL voltage 992 -112 R0
WINDOW 123 0 0 Left 0
WINDOW 39 0 0 Left 0
SYMATTR InstName V1
SYMATTR Value 1.5
SYMBOL nmos4 784 384 R0
SYMATTR InstName M4
SYMATTR Value n_65
SYMATTR Value2 l=0.5u w=4u
SYMBOL nmos4 1024 384 R0
SYMATTR InstName M5
SYMATTR Value n_65
SYMATTR Value2 l=0.5u w=2u
SYMBOL current 1072 208 R0
WINDOW 123 0 0 Left 0
WINDOW 39 0 0 Left 0
SYMATTR InstName I2
SYMATTR Value 5µ
SYMBOL cap 656 352 R0
SYMATTR InstName C2
SYMATTR Value 500f
SYMBOL OTA_SE 384 64 R0
SYMATTR InstName X1
SYMBOL cap 320 -80 R270
WINDOW 0 32 32 VTop 2
WINDOW 3 0 32 VBottom 2
SYMATTR InstName C6
SYMATTR Value 0.2p
SYMBOL voltage 256 -448 R0
WINDOW 3 -469 54 Left 2
WINDOW 123 0 0 Left 0
WINDOW 39 0 0 Left 0
SYMATTR Value PULSE(0 1.5 0 1n 1n 1u 8u)
SYMATTR InstName V5
SYMBOL nmos4 480 -304 R90
SYMATTR InstName M7
SYMATTR Value n_65
SYMATTR Value2 l=65n w=2u
TEXT 320 504 Left 2 !.tran 0 1.6u 0 0.1n
TEXT 320 552 Left 2 ;.op
TEXT -280 -352 Left 2 !.include 65nm_bulk.txt
TEXT -312 -312 Left 2 !.OPTIONS ALLOW_AMBIGUOUS_MODELS
