Version 4
SHEET 1 1808 1504
WIRE 1200 96 1104 96
WIRE 1104 128 1104 96
WIRE 1200 288 1200 96
WIRE 1152 304 944 304
WIRE 96 336 96 256
WIRE 848 336 848 256
WIRE 1456 352 1328 352
WIRE -272 400 -304 400
WIRE 16 400 -128 400
WIRE 208 400 176 400
WIRE 256 400 208 400
WIRE 688 400 400 400
WIRE 768 400 688 400
WIRE 944 400 944 304
WIRE 944 400 928 400
WIRE 1152 400 1120 400
WIRE 1456 400 1456 352
WIRE 1536 400 1456 400
WIRE 1744 400 1680 400
WIRE 1200 448 1200 416
WIRE 96 544 96 464
WIRE 848 544 848 464
WIRE 1072 560 1072 528
WIRE 496 608 496 528
WIRE 688 624 688 400
WIRE 688 624 544 624
WIRE 944 624 944 400
WIRE 992 624 944 624
WIRE 1264 624 1152 624
WIRE 1456 624 1456 400
WIRE 1456 624 1408 624
WIRE 208 672 208 400
WIRE 368 672 208 672
WIRE 576 720 544 720
WIRE 1072 768 1072 688
WIRE 496 816 496 736
WIRE -976 832 -976 800
WIRE -1360 992 -1360 944
WIRE -976 1120 -976 1088
WIRE -112 1136 -112 1088
WIRE -1280 1408 -1280 1376
FLAG 96 256 clk_b
IOPIN 96 256 In
FLAG 96 544 clk
IOPIN 96 544 In
FLAG 848 256 clk
IOPIN 848 256 In
FLAG 848 544 clk_b
IOPIN 848 544 In
FLAG 1072 528 clk_b
IOPIN 1072 528 In
FLAG 1072 768 clk
IOPIN 1072 768 In
FLAG -304 400 D
IOPIN -304 400 In
FLAG 1744 400 Q
IOPIN 1744 400 Out
FLAG 496 816 clk
IOPIN 496 816 In
FLAG 496 528 clk_b
IOPIN 496 528 In
FLAG 576 720 Reset_b
IOPIN 576 720 In
FLAG 1120 400 Reset_b
IOPIN 1120 400 In
FLAG 1200 528 0
FLAG 1104 208 0
FLAG -976 800 clk
IOPIN -976 800 In
FLAG -976 912 0
FLAG -976 1088 clk_b
IOPIN -976 1088 In
FLAG -976 1200 0
FLAG -1280 1376 D
IOPIN -1280 1376 In
FLAG -1280 1488 0
FLAG -1360 944 VDD
FLAG -1360 1072 0
FLAG -112 1088 Reset_b
IOPIN -112 1088 In
FLAG -112 1216 0
SYMBOL inverter -208 400 R0
SYMATTR InstName X1
SYMBOL inverter 1344 624 M0
SYMATTR InstName X3
SYMBOL inverter 320 400 R0
SYMATTR InstName X4
SYMBOL inverter 1600 400 R0
SYMATTR InstName X6
SYMBOL transmission_gate 96 400 R0
SYMATTR InstName X7
SYMBOL transmission_gate 848 400 R0
SYMATTR InstName X8
SYMBOL transmission_gate 1072 624 M0
SYMATTR InstName X9
SYMBOL nand_sym 464 672 M0
SYMATTR InstName X2
SYMBOL nand_sym 1232 352 R0
SYMATTR InstName X5
SYMBOL Voltage 1200 432 R0
SYMATTR InstName V1
SYMATTR Value 1.2
SYMBOL Voltage 1104 112 R0
SYMATTR InstName V2
SYMATTR Value 0
SYMBOL Voltage -976 816 R0
SYMATTR InstName V3
SYMATTR Value PULSE(0 1.2 1u 1n 1n 2u 4u)
SYMBOL Voltage -976 1104 R0
SYMATTR InstName V4
SYMATTR Value PULSE(1.2 0 1u 1n 1n 2u 4u)
SYMBOL Voltage -1280 1392 R0
SYMATTR InstName V5
SYMATTR Value PULSE(0 1.2 1.5u 1n 1n 3u 6u)
SYMBOL Voltage -1360 976 R0
SYMATTR InstName V6
SYMATTR Value 1.2
SYMBOL Voltage -112 1120 R0
SYMATTR InstName V7
SYMATTR Value PWL(0 1.2 20u 1.2 20.001u 0)
TEXT -960 0 Left 2 !.include 65nm_bulk.txt
TEXT -976 640 Left 2 !.tran 0 40u 0 1n
