Version 4
SHEET 1 1368 1828
WIRE -544 -16 -544 -48
WIRE -336 0 -336 -32
WIRE -544 32 -544 -16
WIRE -336 48 -336 0
WIRE -1008 80 -1040 80
WIRE -784 80 -816 80
WIRE 368 128 224 128
WIRE 384 128 368 128
WIRE -1040 160 -1040 80
WIRE -816 160 -816 80
WIRE 32 160 -32 160
WIRE 96 160 32 160
WIRE 32 192 -32 192
WIRE 96 192 32 192
WIRE -544 208 -544 112
WIRE -336 224 -336 128
WIRE 352 224 224 224
WIRE 384 224 352 224
WIRE -1040 336 -1040 240
WIRE -816 336 -816 240
WIRE -1024 448 -1056 448
WIRE -800 448 -832 448
WIRE 128 448 16 448
WIRE 384 448 208 448
WIRE -240 480 -240 464
WIRE -192 480 -240 480
WIRE -144 480 -192 480
WIRE -32 480 -80 480
WIRE 16 480 16 448
WIRE 16 480 -32 480
WIRE -1056 528 -1056 448
WIRE -832 528 -832 448
WIRE 384 528 384 448
WIRE 16 544 16 480
WIRE 128 544 16 544
WIRE 384 544 384 528
WIRE 384 544 192 544
WIRE 1136 624 992 624
WIRE 1152 624 1136 624
WIRE 864 656 736 656
WIRE 864 688 736 688
WIRE -1056 704 -1056 608
WIRE -832 704 -832 608
WIRE 144 720 32 720
WIRE 400 720 224 720
WIRE 1120 720 992 720
WIRE 1152 720 1120 720
WIRE -208 752 -224 752
WIRE -128 752 -208 752
WIRE -32 752 -64 752
WIRE 32 752 32 720
WIRE 32 752 -32 752
WIRE 400 784 400 720
WIRE -1184 816 -1200 816
WIRE -1168 816 -1184 816
WIRE 32 816 32 752
WIRE 144 816 32 816
WIRE 400 816 400 784
WIRE 400 816 208 816
WIRE -1200 896 -1200 816
WIRE 944 912 832 912
WIRE 1200 912 1024 912
WIRE -464 928 -608 928
WIRE -448 928 -464 928
WIRE 576 944 576 928
WIRE 672 944 576 944
WIRE 784 944 736 944
WIRE 832 944 832 912
WIRE 832 944 784 944
WIRE -800 960 -864 960
WIRE -736 960 -800 960
WIRE -800 992 -864 992
WIRE -736 992 -800 992
WIRE 1200 992 1200 912
WIRE 832 1008 832 944
WIRE 944 1008 832 1008
WIRE 1200 1008 1200 992
WIRE 1200 1008 1008 1008
WIRE -480 1024 -608 1024
WIRE -448 1024 -480 1024
WIRE -1200 1072 -1200 976
WIRE 1312 1104 1296 1104
WIRE 960 1184 848 1184
WIRE 1216 1184 1040 1184
WIRE 640 1216 592 1216
WIRE 688 1216 640 1216
WIRE 784 1216 752 1216
WIRE 848 1216 848 1184
WIRE 848 1216 784 1216
WIRE -704 1248 -816 1248
WIRE -448 1248 -624 1248
WIRE 1216 1248 1216 1184
WIRE -976 1280 -1024 1280
WIRE -864 1280 -912 1280
WIRE -816 1280 -816 1248
WIRE -816 1280 -864 1280
WIRE 848 1280 848 1216
WIRE 960 1280 848 1280
WIRE 1216 1280 1216 1248
WIRE 1216 1280 1024 1280
WIRE 592 1296 592 1216
WIRE -448 1328 -448 1248
WIRE -816 1344 -816 1280
WIRE -704 1344 -816 1344
WIRE -448 1344 -448 1328
WIRE -448 1344 -640 1344
WIRE -688 1520 -800 1520
WIRE -432 1520 -608 1520
WIRE -960 1552 -1056 1552
WIRE -864 1552 -896 1552
WIRE -800 1552 -800 1520
WIRE -800 1552 -864 1552
WIRE -432 1584 -432 1520
WIRE -800 1616 -800 1552
WIRE -688 1616 -800 1616
WIRE -432 1616 -432 1584
WIRE -432 1616 -624 1616
WIRE -1056 1632 -1056 1552
WIRE -1056 1808 -1056 1712
FLAG -32 480 vin_p
FLAG -32 752 vin_n
FLAG -192 480 vip
FLAG 384 528 voutn
FLAG 400 784 voutp
FLAG 368 128 voutp
FLAG 352 224 voutn
FLAG 32 192 vin_p
FLAG 32 160 vin_n
FLAG -336 224 0
FLAG -336 0 vdd
FLAG -544 208 0
FLAG -544 -16 vss
FLAG -816 336 0
FLAG -1040 336 0
FLAG -832 704 0
FLAG -800 448 vip1
FLAG -1056 704 0
FLAG -1024 448 vip
FLAG -864 1280 vin_p1
FLAG -864 1552 vin_n1
FLAG -1024 1280 vip1
FLAG -448 1328 voutn1
FLAG -432 1584 voutp1
FLAG -464 928 voutp1
FLAG -480 1024 voutn1
FLAG -800 992 vin_p1
FLAG -800 960 vin_n1
FLAG -1200 1072 0
FLAG -1184 816 vin
FLAG -1056 1808 0
FLAG 1136 624 voutp3
FLAG 1120 720 voutn3
FLAG 784 944 vin_p3
FLAG 784 1216 vin_n3
FLAG 1200 992 voutn3
FLAG 1216 1248 voutp3
FLAG 640 1216 vin3
FLAG -208 752 vin
DATAFLAG 64 720 ""
DATAFLAG 336 720 ""
DATAFLAG 368 496 ""
DATAFLAG 112 448 ""
DATAFLAG 384 768 ""
DATAFLAG 320 128 ""
DATAFLAG 288 224 ""
DATAFLAG 384 448 ""
DATAFLAG -768 1520 ""
DATAFLAG -496 1520 ""
DATAFLAG -464 1296 ""
DATAFLAG -752 1248 ""
DATAFLAG -448 1568 ""
DATAFLAG -448 1248 ""
DATAFLAG -544 928 ""
DATAFLAG 880 1184 ""
DATAFLAG 1152 1184 ""
DATAFLAG 1184 960 ""
DATAFLAG 896 912 ""
DATAFLAG 1200 1232 ""
DATAFLAG 1200 912 ""
SYMBOL FC_OTA 192 176 R0
SYMATTR InstName X1
SYMBOL res 240 704 R90
WINDOW 0 0 56 VBottom 2
WINDOW 3 32 56 VTop 2
SYMATTR InstName R1
SYMATTR Value {R}
SYMBOL cap 208 800 R90
WINDOW 0 0 32 VBottom 2
WINDOW 3 32 32 VTop 2
SYMATTR InstName C1
SYMATTR Value 200f
SYMBOL cap -64 736 R90
WINDOW 0 0 32 VBottom 2
WINDOW 3 32 32 VTop 2
SYMATTR InstName C2
SYMATTR Value 400f
SYMBOL res 224 432 R90
WINDOW 0 0 56 VBottom 2
WINDOW 3 32 56 VTop 2
SYMATTR InstName R2
SYMATTR Value {R}
SYMBOL cap 192 528 R90
WINDOW 0 0 32 VBottom 2
WINDOW 3 32 32 VTop 2
SYMATTR InstName C3
SYMATTR Value 200f
SYMBOL cap -80 464 R90
WINDOW 0 0 32 VBottom 2
WINDOW 3 32 32 VTop 2
SYMATTR InstName C4
SYMATTR Value 400f
SYMBOL voltage -336 32 R0
WINDOW 123 0 0 Left 0
WINDOW 39 0 0 Left 0
SYMATTR InstName V1
SYMATTR Value 1.2
SYMBOL voltage -544 16 R0
WINDOW 123 0 0 Left 0
WINDOW 39 0 0 Left 0
SYMATTR InstName V2
SYMATTR Value 0
SYMBOL voltage -816 144 R0
WINDOW 123 24 124 Left 2
WINDOW 39 0 0 Left 0
SYMATTR Value2 AC 0 0
SYMATTR InstName V4
SYMATTR Value SINE(0.3 0 0)
SYMBOL voltage -1040 144 R0
WINDOW 123 24 124 Left 2
WINDOW 39 0 0 Left 0
SYMATTR Value2 AC 1 0
SYMATTR InstName V6
SYMATTR Value SINE(0.6 300m 10k)
SYMBOL voltage -832 512 R0
WINDOW 123 24 124 Left 2
WINDOW 39 0 0 Left 0
WINDOW 3 24 96 Invisible 2
SYMATTR Value2 AC 0 0
SYMATTR Value PULSE(0.3 0.8 0 1n 1n 10u 20u)
SYMATTR InstName V3
SYMBOL voltage -1056 512 R0
WINDOW 123 24 124 Left 2
WINDOW 39 0 0 Left 0
SYMATTR Value2 AC 0 0
SYMATTR InstName V5
SYMATTR Value PWL file=vstart_stream2.txt
SYMBOL FC_OTA -640 976 R0
SYMATTR InstName X2
SYMBOL res -592 1504 R90
WINDOW 0 0 56 VBottom 2
WINDOW 3 32 56 VTop 2
SYMATTR InstName R3
SYMATTR Value {R}
SYMBOL cap -624 1600 R90
WINDOW 0 0 32 VBottom 2
WINDOW 3 32 32 VTop 2
SYMATTR InstName C5
SYMATTR Value 200f
SYMBOL cap -896 1536 R90
WINDOW 0 0 32 VBottom 2
WINDOW 3 32 32 VTop 2
SYMATTR InstName C6
SYMATTR Value 400f
SYMBOL res -608 1232 R90
WINDOW 0 0 56 VBottom 2
WINDOW 3 32 56 VTop 2
SYMATTR InstName R4
SYMATTR Value {R}
SYMBOL cap -640 1328 R90
WINDOW 0 0 32 VBottom 2
WINDOW 3 32 32 VTop 2
SYMATTR InstName C7
SYMATTR Value 200f
SYMBOL cap -912 1264 R90
WINDOW 0 0 32 VBottom 2
WINDOW 3 32 32 VTop 2
SYMATTR InstName C8
SYMATTR Value 400f
SYMBOL voltage -1200 880 R0
WINDOW 123 24 124 Left 2
WINDOW 39 0 0 Left 0
SYMATTR Value2 AC 1 0
SYMATTR InstName V7
SYMATTR Value PWL file=Pixel_output_stream2.txt
SYMBOL voltage -1056 1616 R0
WINDOW 123 0 0 Left 0
WINDOW 39 0 0 Left 0
SYMATTR InstName V8
SYMATTR Value 0.6
SYMBOL FC_OTA 960 672 R0
SYMATTR InstName X3
SYMBOL res 1056 1168 R90
WINDOW 0 0 56 VBottom 2
WINDOW 3 32 56 VTop 2
SYMATTR InstName R5
SYMATTR Value {R}
SYMBOL cap 1024 1264 R90
WINDOW 0 0 32 VBottom 2
WINDOW 3 32 32 VTop 2
SYMATTR InstName C9
SYMATTR Value 200f
SYMBOL cap 752 1200 R90
WINDOW 0 0 32 VBottom 2
WINDOW 3 32 32 VTop 2
SYMATTR InstName C10
SYMATTR Value 400f
SYMBOL res 1040 896 R90
WINDOW 0 0 56 VBottom 2
WINDOW 3 32 56 VTop 2
SYMATTR InstName R6
SYMATTR Value {R}
SYMBOL cap 1008 992 R90
WINDOW 0 0 32 VBottom 2
WINDOW 3 32 32 VTop 2
SYMATTR InstName C11
SYMATTR Value 200f
SYMBOL cap 736 928 R90
WINDOW 0 0 32 VBottom 2
WINDOW 3 32 32 VTop 2
SYMATTR InstName C12
SYMATTR Value 400f
TEXT 536 -16 Left 2 !.include 65nm_bulk.txt
TEXT 528 72 Left 2 ;.op
TEXT 528 112 Left 2 ;.ac dec 10 1 10G
TEXT 528 144 Left 2 !.tran 0 0.5m 0 0.1u
TEXT -1472 1504 Left 2 !.param R=10000Meg
