Version 4
SHEET 1 2428 1184
WIRE 96 320 -16 320
WIRE 416 320 336 320
WIRE 736 320 672 320
WIRE 1040 320 992 320
WIRE 1328 320 1264 320
WIRE 1600 320 1552 320
WIRE 1856 320 1824 320
WIRE 2128 320 2080 320
WIRE 96 352 -16 352
WIRE 304 352 288 352
WIRE 416 352 304 352
WIRE 640 352 608 352
WIRE 736 352 640 352
WIRE 960 352 928 352
WIRE 1040 352 960 352
WIRE 1280 352 1232 352
WIRE 1328 352 1280 352
WIRE 1536 352 1520 352
WIRE 1600 352 1536 352
WIRE 1808 352 1808 240
WIRE 1808 352 1792 352
WIRE 1856 352 1808 352
WIRE 2064 352 2048 352
WIRE 2128 352 2064 352
WIRE 2368 352 2320 352
WIRE 96 384 48 384
WIRE 336 384 336 320
WIRE 336 384 288 384
WIRE 416 384 384 384
WIRE 672 384 672 320
WIRE 672 384 608 384
WIRE 736 384 704 384
WIRE 992 384 992 320
WIRE 992 384 928 384
WIRE 1040 384 1008 384
WIRE 1264 384 1264 320
WIRE 1264 384 1232 384
WIRE 1328 384 1296 384
WIRE 1552 384 1552 320
WIRE 1552 384 1520 384
WIRE 1600 384 1568 384
WIRE 1824 384 1824 320
WIRE 1824 384 1792 384
WIRE 1856 384 1840 384
WIRE 2080 384 2080 320
WIRE 2080 384 2048 384
WIRE 2128 384 2112 384
WIRE 2336 384 2320 384
WIRE 96 416 64 416
WIRE 416 416 400 416
WIRE 736 416 720 416
WIRE 1040 416 1024 416
WIRE 1328 416 1312 416
WIRE 1600 416 1584 416
WIRE 1856 416 1808 416
WIRE 2128 416 2096 416
WIRE 48 480 48 384
WIRE 336 480 336 384
WIRE 336 480 48 480
WIRE 384 480 384 384
WIRE 672 480 672 384
WIRE 672 480 384 480
WIRE 704 480 704 384
WIRE 992 480 992 384
WIRE 992 480 704 480
WIRE 1008 480 1008 384
WIRE 1264 480 1264 384
WIRE 1264 480 1008 480
WIRE 1296 480 1296 384
WIRE 1552 480 1552 384
WIRE 1552 480 1296 480
WIRE 1568 480 1568 384
WIRE 1824 480 1824 384
WIRE 1824 480 1568 480
WIRE 2112 480 2112 384
WIRE 2336 480 2336 384
WIRE 2336 480 2112 480
WIRE 1808 496 1808 416
WIRE 2096 496 2096 416
WIRE 2096 496 1808 496
WIRE 64 512 64 416
WIRE 400 512 400 416
WIRE 400 512 64 512
WIRE 720 512 720 416
WIRE 720 512 400 512
WIRE 1024 512 1024 416
WIRE 1024 512 720 512
WIRE 1312 512 1312 416
WIRE 1312 512 1024 512
WIRE 1584 512 1584 416
WIRE 1584 512 1312 512
WIRE 1808 512 1808 496
WIRE 1808 512 1584 512
WIRE 1840 512 1840 384
WIRE 2080 512 2080 384
WIRE 2080 512 1840 512
WIRE 64 592 64 512
WIRE 64 592 0 592
WIRE 304 624 304 352
WIRE 640 624 640 352
WIRE 960 624 960 352
WIRE 1280 624 1280 352
WIRE 1536 624 1536 352
WIRE 2064 624 2064 352
WIRE 2368 624 2368 352
WIRE -624 800 -624 768
WIRE 144 976 144 928
WIRE -624 1088 -624 1056
FLAG 304 624 Q0
IOPIN 304 624 Out
FLAG 640 624 Q1
IOPIN 640 624 Out
FLAG 960 624 Q2
IOPIN 960 624 Out
FLAG -16 320 clk
IOPIN -16 320 In
FLAG -16 352 clk_b
IOPIN -16 352 In
FLAG 0 592 Reset_b
IOPIN 0 592 In
FLAG -624 768 clk
IOPIN -624 768 In
FLAG -624 880 0
FLAG -624 1056 clk_b
IOPIN -624 1056 In
FLAG -624 1168 0
FLAG 144 928 Reset_b
IOPIN 144 928 In
FLAG 144 1056 0
FLAG 1280 624 Q3
IOPIN 1280 624 Out
FLAG 1536 624 Q4
IOPIN 1536 624 Out
FLAG 2064 624 Q6
IOPIN 2064 624 Out
FLAG 2368 624 Q7
IOPIN 2368 624 Out
FLAG 1808 240 Q5
IOPIN 1808 240 Out
SYMBOL def_res_sym_2 192 368 R0
SYMATTR InstName X1
SYMBOL def_res_sym_2 512 368 R0
SYMATTR InstName X2
SYMBOL def_res_sym_2 832 368 R0
SYMATTR InstName X3
SYMBOL Voltage -624 784 R0
SYMATTR InstName V1
SYMATTR Value PULSE(0 1.2 1u 1n 1n 2u 4u)
SYMBOL Voltage -624 1072 R0
SYMATTR InstName V2
SYMATTR Value PULSE(1.2 0 1u 1n 1n 2u 4u)
SYMBOL Voltage 144 960 R0
SYMATTR InstName V3
SYMATTR Value PWL(0 0 0.9u 0 0.9001u 1.2)
SYMBOL def_res_sym_2 1136 368 R0
SYMATTR InstName X4
SYMBOL def_res_sym_2 1424 368 R0
SYMATTR InstName X5
SYMBOL def_res_sym_2 1696 368 R0
SYMATTR InstName X6
SYMBOL def_res_sym_2 1952 368 R0
SYMATTR InstName X7
SYMBOL def_res_sym_2 2224 368 R0
SYMATTR InstName X8
TEXT 16 104 Left 2 !.include 65nm_bulk.txt
TEXT -600 488 Left 2 !.tran 0 150u 0 0.01u
