Version 4
SHEET 1 3360 1156
WIRE -2768 -1264 -2768 -1296
WIRE -2272 -1264 -2272 -1296
WIRE -2768 -1216 -2768 -1264
WIRE -2272 -1216 -2272 -1264
WIRE -2768 -1040 -2768 -1136
WIRE -2272 -1040 -2272 -1136
WIRE 1152 -992 1152 -1024
WIRE 1360 -976 1360 -1008
WIRE 1568 -960 1568 -992
WIRE 1152 -944 1152 -992
WIRE 1360 -928 1360 -976
WIRE -2752 -912 -2752 -944
WIRE -2272 -912 -2272 -944
WIRE 1568 -912 1568 -960
WIRE -2752 -864 -2752 -912
WIRE -2272 -864 -2272 -912
WIRE 1152 -768 1152 -864
WIRE 1360 -752 1360 -848
WIRE 1568 -736 1568 -832
WIRE -2752 -688 -2752 -784
WIRE -2272 -688 -2272 -784
WIRE -592 -592 -1392 -592
WIRE -2640 -528 -2640 -560
WIRE -720 -512 -736 -512
WIRE -2640 -480 -2640 -528
WIRE -736 -480 -736 -512
WIRE 1008 -448 992 -448
WIRE -1392 -432 -1392 -592
WIRE -736 -432 -736 -480
WIRE 2912 -432 2896 -432
WIRE 336 -416 336 -448
WIRE 992 -416 992 -448
WIRE 2240 -400 2240 -432
WIRE 2896 -400 2896 -432
WIRE -816 -368 -896 -368
WIRE -592 -368 -592 -592
WIRE -592 -368 -656 -368
WIRE 336 -368 336 -416
WIRE 992 -368 992 -416
WIRE -1488 -352 -1520 -352
WIRE -1456 -352 -1488 -352
WIRE -1280 -352 -1328 -352
WIRE -1248 -352 -1280 -352
WIRE 2240 -352 2240 -400
WIRE 2896 -352 2896 -400
WIRE -2640 -304 -2640 -400
WIRE 912 -304 832 -304
WIRE 1136 -304 1072 -304
WIRE 240 -288 208 -288
WIRE 272 -288 240 -288
WIRE 448 -288 400 -288
WIRE 480 -288 448 -288
WIRE 2816 -288 2736 -288
WIRE 3040 -288 2976 -288
WIRE -1680 -272 -1680 -288
WIRE 2144 -272 2112 -272
WIRE 2176 -272 2144 -272
WIRE 2352 -272 2304 -272
WIRE 2384 -272 2352 -272
WIRE -736 -256 -736 -304
WIRE -736 -240 -736 -256
WIRE -1680 -224 -1680 -272
WIRE -2736 -208 -2736 -240
WIRE 48 -208 48 -224
WIRE 992 -192 992 -240
WIRE 1952 -192 1952 -208
WIRE 992 -176 992 -192
WIRE 2896 -176 2896 -224
WIRE 3296 -176 3280 -176
WIRE -2736 -160 -2736 -208
WIRE -1824 -160 -1872 -160
WIRE -1760 -160 -1824 -160
WIRE -1392 -160 -1392 -272
WIRE -1392 -160 -1600 -160
WIRE 48 -160 48 -208
WIRE 2896 -160 2896 -176
WIRE -1872 -144 -1872 -160
WIRE 1952 -144 1952 -192
WIRE 3280 -144 3280 -176
WIRE -32 -96 -400 -96
WIRE 272 -96 128 -96
WIRE 336 -96 336 -208
WIRE 336 -96 272 -96
WIRE 832 -96 832 -304
WIRE 912 -96 832 -96
WIRE 1136 -96 1136 -304
WIRE 1136 -96 976 -96
WIRE 3280 -96 3280 -144
WIRE 1776 -80 1760 -80
WIRE 1872 -80 1776 -80
WIRE 2176 -80 2032 -80
WIRE 2240 -80 2240 -192
WIRE 2240 -80 2176 -80
WIRE 2736 -80 2736 -288
WIRE 2816 -80 2736 -80
WIRE 3040 -80 3040 -288
WIRE 3040 -80 2880 -80
WIRE 1760 -64 1760 -80
WIRE -1680 -48 -1680 -96
WIRE -1392 -32 -1392 -160
WIRE -1216 -32 -1392 -32
WIRE -1104 -32 -1152 -32
WIRE -1072 -32 -1104 -32
WIRE -1680 -16 -1680 -48
WIRE -2736 16 -2736 -80
WIRE -592 16 -592 -368
WIRE -512 16 -592 16
WIRE -400 16 -400 -96
WIRE -400 16 -512 16
WIRE 48 16 48 -32
WIRE -592 32 -592 16
WIRE -592 32 -736 32
WIRE 336 32 336 -96
WIRE 512 32 336 32
WIRE 624 32 576 32
WIRE 656 32 624 32
WIRE 1952 32 1952 -16
WIRE -1072 48 -1072 -32
WIRE -896 48 -896 -368
WIRE -896 48 -1072 48
WIRE -832 48 -896 48
WIRE 48 48 48 16
WIRE 2240 48 2240 -80
WIRE 2416 48 2240 48
WIRE 2528 48 2480 48
WIRE 2560 48 2528 48
WIRE 1952 64 1952 32
WIRE -896 80 -1072 80
WIRE -832 80 -896 80
WIRE 1136 80 1136 -96
WIRE 1136 80 992 80
WIRE 1296 80 1136 80
WIRE 1376 80 1296 80
WIRE -592 96 -736 96
WIRE 992 96 992 80
WIRE 3040 96 3040 -80
WIRE 3072 96 3040 96
WIRE 3280 96 3280 -32
WIRE -592 112 -592 96
WIRE -512 112 -592 112
WIRE -400 112 -512 112
WIRE 656 112 656 32
WIRE 832 112 832 -96
WIRE 832 112 656 112
WIRE 896 112 832 112
WIRE 3040 112 3040 96
WIRE 3040 112 2896 112
WIRE -1680 128 -1680 96
WIRE 2560 128 2560 48
WIRE 2736 128 2736 -80
WIRE 2736 128 2560 128
WIRE 2800 128 2736 128
WIRE -1216 144 -1392 144
WIRE -1120 144 -1152 144
WIRE -1072 144 -1072 80
WIRE -1072 144 -1120 144
WIRE 832 144 656 144
WIRE 896 144 832 144
WIRE 2736 160 2560 160
WIRE 2800 160 2736 160
WIRE -1680 176 -1680 128
WIRE 992 176 992 160
WIRE 1136 176 992 176
WIRE 1296 176 1136 176
WIRE 1392 176 1296 176
WIRE 3040 176 2896 176
WIRE 48 192 48 160
WIRE 3040 192 3040 176
WIRE 3056 192 3040 192
WIRE -3152 208 -3152 176
WIRE -2656 208 -2656 176
WIRE 512 208 336 208
WIRE 608 208 576 208
WIRE 656 208 656 144
WIRE 656 208 608 208
WIRE 1952 208 1952 176
WIRE 2416 224 2240 224
WIRE 2512 224 2480 224
WIRE 2560 224 2560 160
WIRE 2560 224 2512 224
WIRE -1872 240 -1872 224
WIRE -1824 240 -1872 240
WIRE -1760 240 -1824 240
WIRE -1392 240 -1392 144
WIRE -1392 240 -1600 240
WIRE 48 240 48 192
WIRE -3152 256 -3152 208
WIRE -2656 256 -2656 208
WIRE 1952 256 1952 208
WIRE 3296 288 3296 192
WIRE -400 304 -400 112
WIRE -32 304 -400 304
WIRE 192 304 128 304
WIRE 336 304 336 208
WIRE 336 304 192 304
WIRE -720 320 -736 320
WIRE 1760 320 1760 304
WIRE 1808 320 1760 320
WIRE 1872 320 1808 320
WIRE 2096 320 2032 320
WIRE 2240 320 2240 224
WIRE 2240 320 2096 320
WIRE 832 336 832 144
WIRE 928 336 832 336
WIRE 1136 336 1136 176
WIRE 1136 336 992 336
WIRE -1680 352 -1680 304
WIRE -1392 352 -1392 240
WIRE -736 352 -736 320
WIRE 2736 352 2736 160
WIRE 2832 352 2736 352
WIRE 3040 352 3040 192
WIRE 3040 352 2896 352
WIRE -1680 368 -1680 352
WIRE 1008 384 992 384
WIRE -736 400 -736 352
WIRE 2912 400 2896 400
WIRE 3296 400 3296 352
WIRE 48 416 48 368
WIRE 336 416 336 304
WIRE 992 416 992 384
WIRE -3152 432 -3152 336
WIRE -2656 432 -2656 336
WIRE -1488 432 -1520 432
WIRE -1456 432 -1488 432
WIRE -1280 432 -1328 432
WIRE -1248 432 -1280 432
WIRE 48 432 48 416
WIRE 1952 432 1952 384
WIRE 2240 432 2240 320
WIRE 2896 432 2896 400
WIRE 1952 448 1952 432
WIRE 3296 448 3296 400
WIRE 3312 448 3296 448
WIRE -896 464 -896 80
WIRE -816 464 -896 464
WIRE -592 464 -592 112
WIRE -592 464 -656 464
WIRE 992 464 992 416
WIRE 2896 480 2896 432
WIRE 240 496 208 496
WIRE 272 496 240 496
WIRE 448 496 400 496
WIRE 480 496 448 496
WIRE 2144 512 2112 512
WIRE 2176 512 2144 512
WIRE 2352 512 2304 512
WIRE 2384 512 2352 512
WIRE 832 528 832 336
WIRE 912 528 832 528
WIRE 1136 528 1136 336
WIRE 1136 528 1072 528
WIRE 2736 544 2736 352
WIRE 2816 544 2736 544
WIRE 3040 544 3040 352
WIRE 3040 544 2976 544
WIRE -736 576 -736 528
WIRE -736 592 -736 576
WIRE 336 624 336 576
WIRE 992 640 992 592
WIRE 2240 640 2240 592
WIRE -1664 656 -1664 640
WIRE 336 656 336 624
WIRE 992 656 992 640
WIRE 2896 656 2896 608
WIRE -1392 672 -1392 512
WIRE -592 672 -592 464
WIRE -592 672 -1392 672
WIRE 2240 672 2240 640
WIRE 2896 672 2896 656
WIRE -1664 704 -1664 656
WIRE -1824 768 -1856 768
WIRE -1744 768 -1824 768
WIRE -1520 768 -1584 768
WIRE -1488 768 -1520 768
WIRE -1856 784 -1856 768
WIRE -1664 880 -1664 832
WIRE -1664 912 -1664 880
FLAG 1360 -752 0
FLAG 1360 -976 vdd1
FLAG 1152 -768 0
FLAG 1152 -992 vss1
FLAG -2640 -304 0
FLAG -2640 -528 vres
FLAG 992 -416 vres
FLAG 992 -192 vresb
FLAG 992 416 vres
FLAG 992 640 vresb
FLAG -2272 -688 0
FLAG -2272 -912 vs
FLAG -2752 -688 0
FLAG -2752 -912 vs_b
FLAG -2272 -1040 0
FLAG -2272 -1264 vin_n
FLAG -2768 -1040 0
FLAG -2768 -1264 vin_p
FLAG -2736 16 0
FLAG -2736 -208 vresb
FLAG 1568 -736 0
FLAG 1568 -960 vcm
FLAG 336 624 vcm
FLAG 336 -416 vcm
FLAG 448 -288 vres
FLAG 448 496 vres
FLAG 240 -288 vresb
FLAG 240 496 vresb
FLAG 48 -208 vs_b
FLAG 48 416 vs_b
FLAG 48 16 vs
FLAG 48 192 vs
FLAG 272 -96 vin_n1
FLAG 192 304 vin_p1
FLAG 624 32 vin_n2
FLAG 608 208 vin_p2
FLAG 3072 96 voutp1a
FLAG 3056 192 voutn1a
FLAG 2896 -400 vres
FLAG 2896 -176 vresb
FLAG 2896 432 vres
FLAG 2896 656 vresb
FLAG 2240 640 vcm
FLAG 2240 -400 vcm
FLAG 2352 -272 vres
FLAG 2352 512 vres
FLAG 2144 -272 vresb
FLAG 2144 512 vresb
FLAG 1952 -192 vs_b
FLAG 1952 432 vs_b
FLAG 1952 32 vs
FLAG 1952 208 vs
FLAG 2176 -80 vin_n1a
FLAG 2096 320 vin_p1a
FLAG 2528 48 vin_n2a
FLAG 2512 224 vin_p2a
FLAG 3280 -144 vss1
FLAG 3296 400 vss1
FLAG -736 -480 vres
FLAG -736 -256 vresb
FLAG -736 352 vres
FLAG -736 576 vresb
FLAG -1824 240 vsin_p
FLAG -1824 -160 vsin_n
FLAG -1280 -352 vs
FLAG -1280 432 vs
FLAG -1488 -352 vs_b
FLAG -1488 432 vs_b
FLAG -1680 -272 vresb
FLAG -1680 352 vresb
FLAG -1680 -48 vres
FLAG -1680 128 vres
FLAG -2656 432 0
FLAG -2656 208 vsin_n
FLAG -3152 432 0
FLAG -3152 208 vsin_p
FLAG 1776 -80 voutp1
FLAG 1808 320 voutn1
FLAG -1664 656 vresb
FLAG -1664 880 vres
FLAG -1104 -32 vx
FLAG -1120 144 vy
FLAG -512 112 voutn0
FLAG -512 16 voutp0
FLAG 1296 80 voutp1
FLAG 1296 176 voutn1
FLAG -1520 768 vx
FLAG -1824 768 vy
DATAFLAG 784 112 ""
DATAFLAG 832 16 ""
DATAFLAG 832 208 ""
DATAFLAG -144 304 ""
DATAFLAG -2640 -528 ""
DATAFLAG 192 -96 ""
DATAFLAG 2688 128 ""
DATAFLAG 2736 32 ""
DATAFLAG 2736 224 ""
DATAFLAG 2096 -80 ""
DATAFLAG -944 48 ""
DATAFLAG -896 -48 ""
DATAFLAG -896 144 ""
DATAFLAG -960 80 "$"
SYMBOL voltage 1360 -944 R0
WINDOW 123 0 0 Left 0
WINDOW 39 0 0 Left 0
SYMATTR InstName V1
SYMATTR Value 1.2
SYMBOL voltage 1152 -960 R0
WINDOW 123 0 0 Left 0
WINDOW 39 0 0 Left 0
SYMATTR InstName V2
SYMATTR Value 0
SYMBOL cap 976 -112 R90
WINDOW 0 0 32 VBottom 2
WINDOW 3 32 32 VTop 2
SYMATTR InstName C1
SYMATTR Value {C2}
SYMBOL cap 992 320 R90
WINDOW 0 0 32 VBottom 2
WINDOW 3 32 32 VTop 2
SYMATTR InstName C2
SYMATTR Value {C2}
SYMBOL TG_Switch 992 -304 R0
SYMATTR InstName X1
SYMBOL TG_Switch 992 528 R0
SYMATTR InstName X2
SYMBOL TG_Switch 48 304 R0
SYMATTR InstName X3
SYMBOL voltage -2736 -176 R0
WINDOW 123 24 124 Left 2
WINDOW 39 0 0 Left 0
SYMATTR Value2 AC 1 0
SYMATTR InstName V12
SYMATTR Value PULSE(1.2 0 0 0.1u 0.1u 4u 20u)
SYMBOL cap 576 16 R90
WINDOW 0 0 32 VBottom 2
WINDOW 3 32 32 VTop 2
SYMATTR InstName C4
SYMATTR Value {C1}
SYMBOL TG_Switch 336 496 R90
SYMATTR InstName X6
SYMBOL voltage 1568 -928 R0
WINDOW 123 0 0 Left 0
WINDOW 39 0 0 Left 0
SYMATTR InstName V4
SYMATTR Value 0.6
SYMBOL TG_Switch 48 -96 M180
SYMATTR InstName X5
SYMBOL TG_Switch 336 -288 M270
SYMATTR InstName X8
SYMBOL voltage -2272 -880 R0
WINDOW 123 24 124 Left 2
WINDOW 39 0 0 Left 0
SYMATTR Value2 AC 1 0
SYMATTR InstName V5
SYMATTR Value PULSE(0 1.2 4u 0.1u 0.1u 16u 20u)
SYMBOL voltage -2768 -1232 R0
WINDOW 123 24 124 Left 2
WINDOW 39 0 0 Left 0
SYMATTR Value2 AC 1 0
SYMATTR InstName V8
SYMATTR Value PULSE(0.7 0.9 0 0.1u 0.1u 20u 40u)
SYMBOL voltage -2640 -496 R0
WINDOW 123 24 124 Left 2
WINDOW 39 0 0 Left 0
SYMATTR Value2 AC 1 0
SYMATTR InstName V9
SYMATTR Value PULSE(0 1.2 0 0.1u 0.1u 4u 20u)
SYMBOL voltage -2752 -880 R0
WINDOW 123 24 124 Left 2
WINDOW 39 0 0 Left 0
SYMATTR Value2 AC 1 0
SYMATTR InstName V3
SYMATTR Value PULSE(1.2 0 4u 0.1u 0.1u 16u 20u)
SYMBOL cap 2880 -96 R90
WINDOW 0 0 32 VBottom 2
WINDOW 3 32 32 VTop 2
SYMATTR InstName C6
SYMATTR Value {C2}
SYMBOL cap 2896 336 R90
WINDOW 0 0 32 VBottom 2
WINDOW 3 32 32 VTop 2
SYMATTR InstName C7
SYMATTR Value {C2}
SYMBOL TG_Switch 2896 -288 R0
SYMATTR InstName X4
SYMBOL TG_Switch 2896 544 R0
SYMATTR InstName X9
SYMBOL TG_Switch 1952 320 R0
SYMATTR InstName X10
SYMBOL cap 2480 208 R90
WINDOW 0 0 32 VBottom 2
WINDOW 3 32 32 VTop 2
SYMATTR InstName C8
SYMATTR Value {C1}
SYMBOL cap 2480 32 R90
WINDOW 0 0 32 VBottom 2
WINDOW 3 32 32 VTop 2
SYMATTR InstName C9
SYMATTR Value {C1}
SYMBOL TG_Switch 2240 512 R90
SYMATTR InstName X12
SYMBOL TG_Switch 1952 -80 M180
SYMATTR InstName X13
SYMBOL TG_Switch 2240 -272 M270
SYMATTR InstName X14
SYMBOL cap 3264 -96 R0
SYMATTR InstName C10
SYMATTR Value 500f
SYMBOL cap 3280 288 R0
SYMATTR InstName C11
SYMATTR Value 500f
SYMBOL TG_Switch -736 -368 R0
SYMATTR InstName X15
SYMBOL TG_Switch -736 464 R0
SYMATTR InstName X16
SYMBOL TG_Switch -1680 240 R0
SYMATTR InstName X17
SYMBOL cap -1152 128 R90
WINDOW 0 0 32 VBottom 2
WINDOW 3 32 32 VTop 2
SYMATTR InstName C14
SYMATTR Value {Cs}
SYMBOL cap -1152 -48 R90
WINDOW 0 0 32 VBottom 2
WINDOW 3 32 32 VTop 2
SYMATTR InstName C15
SYMATTR Value {Cs}
SYMBOL TG_Switch -1392 432 R90
SYMATTR InstName X19
SYMBOL TG_Switch -1680 -160 M180
SYMATTR InstName X20
SYMBOL TG_Switch -1392 -352 M270
SYMATTR InstName X21
SYMBOL voltage -3152 240 R0
WINDOW 123 24 124 Left 2
WINDOW 39 0 0 Left 0
SYMATTR Value2 AC 1 0
SYMATTR InstName V7
SYMATTR Value SINE(0.6 0.1 2k 0 0 180 0)
SYMBOL voltage -2656 240 R0
WINDOW 123 24 124 Left 2
WINDOW 39 0 0 Left 0
SYMATTR Value2 AC 1 0
SYMATTR InstName V10
SYMATTR Value SINE(0.6 0.1 2k 0 0 0 0)
SYMBOL cap 576 192 R90
WINDOW 0 0 32 VBottom 2
WINDOW 3 32 32 VTop 2
SYMATTR InstName C12
SYMATTR Value {C1}
SYMBOL TG_Switch -1664 768 M180
SYMATTR InstName X22
SYMBOL voltage -2272 -1232 R0
WINDOW 123 24 124 Left 2
WINDOW 39 0 0 Left 0
SYMATTR Value2 AC 1 0
SYMATTR InstName V6
SYMATTR Value PULSE(0.9 0.7 0 0.1u 0.1u 20u 40u)
SYMBOL adc_diff_fast_sym 960 128 R0
SYMATTR InstName X18
SYMBOL adc_diff_fast_sym -768 64 R0
SYMATTR InstName X23
SYMBOL adc_diff_fast_sym 2864 144 R0
SYMATTR InstName X25
TEXT 648 -960 Left 2 !.include 65nm_bulk.txt
TEXT 640 -872 Left 2 ;.op
TEXT 640 -832 Left 2 ;.ac dec 10 1 10G
TEXT 640 -800 Left 2 !.tran 0 500u 0 0.1u
TEXT -1200 -704 Left 5 ;Differential Sample & Hold
TEXT 168 -592 Left 5 ;1st 2x Amplifier
TEXT 2240 -608 Left 5 ;2nd 2x Amplifier
TEXT 208 -992 Left 2 !.param C1 =1p
TEXT 192 -920 Left 2 !.param C2 = 0.5p
TEXT 176 -856 Left 2 !.param Cs= 6p
