Version 4
SHEET 1 896 1056
WIRE 304 288 256 288
WIRE 304 320 256 320
WIRE 544 320 496 320
WIRE -592 352 -592 320
WIRE 304 352 128 352
WIRE 544 352 496 352
WIRE 304 384 256 384
WIRE 128 432 128 352
WIRE 544 432 544 352
WIRE 544 432 128 432
WIRE -976 512 -976 464
WIRE -592 640 -592 608
WIRE -288 960 -288 912
FLAG 256 288 clk
IOPIN 256 288 In
FLAG 256 320 clk_b
IOPIN 256 320 In
FLAG 256 384 Reset_b
IOPIN 256 384 In
FLAG 544 320 Q
IOPIN 544 320 Out
FLAG -592 320 clk
IOPIN -592 320 In
FLAG -592 432 0
FLAG -592 608 clk_b
IOPIN -592 608 In
FLAG -592 720 0
FLAG -976 464 VDD
FLAG -976 592 0
FLAG -288 912 Reset_b
IOPIN -288 912 In
FLAG -288 1040 0
SYMBOL def_res_sym_2 400 336 R0
SYMATTR InstName X1
SYMBOL Voltage -592 336 R0
SYMATTR InstName V1
SYMATTR Value PULSE(0 1.2 1u 1n 1n 2u 4u)
SYMBOL Voltage -592 624 R0
SYMATTR InstName V2
SYMATTR Value PULSE(1.2 0 1u 1n 1n 2u 4u)
SYMBOL Voltage -976 496 R0
SYMATTR InstName V4
SYMATTR Value 1.2
SYMBOL Voltage -288 944 R0
SYMATTR InstName V5
SYMATTR Value PWL(0 0 0.9u 0 0.9001u 1.2)
TEXT -56 72 Left 2 !.include 65nm_bulk.txt
TEXT -592 160 Left 2 !.tran 0 40u 0 1n
