Version 4.1
SHEET 1 880 680
WIRE -416 -848 -416 -880
WIRE -208 -832 -208 -864
WIRE -416 -800 -416 -848
WIRE -208 -784 -208 -832
WIRE -416 -624 -416 -720
WIRE -208 -608 -208 -704
WIRE 608 -448 352 -448
WIRE 352 -336 352 -448
WIRE 384 -336 352 -336
WIRE 608 -320 608 -448
WIRE 608 -320 576 -320
WIRE 64 -304 48 -304
WIRE 176 -304 64 -304
WIRE 304 -304 240 -304
WIRE 384 -304 304 -304
WIRE 48 -288 48 -304
WIRE 304 -208 304 -304
WIRE 304 -80 304 -128
WIRE 96 -64 96 -96
WIRE 304 -48 304 -80
WIRE 96 -32 96 -64
WIRE -336 32 -336 -16
WIRE -336 80 -336 32
WIRE 96 112 96 48
WIRE 640 128 304 128
WIRE -336 256 -336 160
WIRE 640 256 640 128
WIRE 640 256 480 256
WIRE 304 288 304 128
WIRE 304 288 288 288
WIRE 352 288 304 288
WIRE 64 320 -64 320
WIRE 192 320 128 320
WIRE 352 320 192 320
WIRE -64 336 -64 320
WIRE 640 352 480 352
WIRE 192 432 192 320
WIRE 192 560 192 512
WIRE 192 592 192 560
FLAG 96 112 0
FLAG 304 -80 vdd_half
FLAG 192 560 vdd_half
FLAG -336 256 0
FLAG -336 32 vsin
FLAG -64 320 vsin
FLAG 64 -304 vsin
FLAG 96 -64 vdd_half
FLAG -208 -608 0
FLAG -208 -832 vdd
FLAG -416 -624 0
FLAG -416 -848 vss
DATAFLAG 480 -448 ""
DATAFLAG 336 -304 ""
DATAFLAG 544 256 ""
DATAFLAG 544 352 ""
DATAFLAG 208 320 ""
SYMBOL cap 240 -320 R90
WINDOW 0 0 32 VBottom 2
WINDOW 3 32 32 VTop 2
SYMATTR InstName C1
SYMATTR Value 1p
SYMBOL FC_SingleEnded 480 -320 R0
SYMATTR InstName X1
SYMBOL voltage 96 -48 R0
WINDOW 123 0 0 Left 0
WINDOW 39 0 0 Left 0
SYMATTR InstName V1
SYMATTR Value 0.6
SYMBOL res 320 -112 R180
WINDOW 0 36 76 Left 2
WINDOW 3 36 40 Left 2
SYMATTR InstName R1
SYMATTR Value {R}
SYMBOL FC_OTA 448 304 R0
SYMATTR InstName X2
SYMBOL res 208 528 R180
WINDOW 0 36 76 Left 2
WINDOW 3 36 40 Left 2
SYMATTR InstName R2
SYMATTR Value {R}
SYMBOL cap 128 304 R90
WINDOW 0 0 32 VBottom 2
WINDOW 3 32 32 VTop 2
SYMATTR InstName C2
SYMATTR Value 1p
SYMBOL voltage -336 64 R0
WINDOW 123 24 124 Left 2
WINDOW 39 0 0 Left 0
WINDOW 3 24 44 Left 2
SYMATTR Value2 AC 1 0
SYMATTR InstName V2
SYMATTR Value SINE(0.1 0.1 10k 0 0 0)
SYMBOL voltage -208 -800 R0
WINDOW 123 0 0 Left 0
WINDOW 39 0 0 Left 0
SYMATTR InstName V3
SYMATTR Value 1.2
SYMBOL voltage -416 -816 R0
WINDOW 123 0 0 Left 0
WINDOW 39 0 0 Left 0
SYMATTR InstName V4
SYMATTR Value 0
TEXT -912 -840 Left 2 !.include 65nm_bulk.txt
TEXT -944 -800 Left 2 !.OPTIONS ALLOW_AMBIGUOUS_MODELS
TEXT -920 -752 Left 2 ;.op
TEXT -920 -712 Left 2 ;.ac dec 10 1 10G
TEXT -920 -680 Left 2 !.tran 0 3m 0 1u
TEXT -320 560 Left 2 !.param R = 10000Meg
